%mem=26GB
%NProcShared=8
# opt=tight mpw1pw91/6-311g(d,p) integral=ultrafine MaxDisk=50GB

0 OPT

0 1
 C            1.98376           1.64262          -0.11344
 C            2.26038           0.27342          -0.21445
 C            3.49469          -0.16533          -0.67707
 C            4.44821           0.78603          -1.04453
 C            4.16520           2.15524          -0.94233
 C            2.92338           2.59255          -0.47470
 C            1.10020          -0.55150           0.28258
 N           -0.01187           0.53757           0.41688
 C            0.66477           1.84053           0.32450
 O           -0.05111           3.02257           0.27070
 C            0.43498           4.14301           0.12900
 C           -1.56031           2.85491           0.41564
 C           -2.17409           1.57261          -0.20256
 C           -1.08549           0.58543          -0.67940
 O           -1.50614          -0.81200          -1.15487
 C           -2.11480          -1.67948          -0.07061
 C           -3.21441          -1.30005           0.60345
 C           -3.90412           0.00223           0.37963
 C           -3.03490           1.03915           0.81350
 C           -1.37110          -2.95548           0.24981
 C            0.05969          -2.71547           0.46650
 C            0.68663          -1.79887          -0.52270
 C           -0.23602          -1.48429          -1.69941
 C            0.34935          -2.21841           1.81944
 N            1.43687          -1.17368           1.64361
 H            3.73091          -1.22305          -0.74174
 H            5.42227           0.46453          -1.40610
 H            4.91806           2.88564          -1.22926
 H            2.71745           3.65532          -0.40440
 H           -0.48633           0.48445           1.40581
 H           -1.79006           2.93142           1.48587
 H           -2.03006           3.72123          -0.06737
 H           -2.79816           1.86504          -1.05706
 H           -0.64672           1.06674          -1.56992
 H           -2.22076          -0.71686          -1.98253
 H           -3.61605          -1.92934           1.39351
 H           -4.79850           0.04092           1.01031
 H           -4.23350           0.13756          -0.65667
 H           -1.80271          -3.47168           1.11697
 H           -1.49311          -3.65547          -0.58663
 H            1.57486          -2.31330          -0.90957
 H           -0.48834          -2.40105          -2.24823
 H            0.27471          -0.83510          -2.42166
 H            0.68074          -3.03362           2.47046
 H           -0.52535          -1.75363           2.29045
 H            2.41893          -1.66484           1.62403
 H            1.44800          -0.44821           2.46457




